*Heading
 Linear Elastic Skew Plate. 20kPa Load.
** Job name: SkewPlate Model name: Model-1
** Generated by: Abaqus/CAE 6.12-1
*Preprint, echo=NO, model=NO, history=NO, contact=NO
**
** PARTS
**
*Part, name=Plate
*Node
      1,          0.5, -0.288675129,           0.
      2,          0.5, -0.750555336,           0.
      3,           1., -0.461880207,           0.
      4,           1.,           0.,           0.
      5,           0., -0.577350259,           0.
      6,           0.,  -1.03923047,           0.
      7,          0.5, -0.381051183,           0.
      8,          0.5, -0.473427206,           0.
      9,          0.5, -0.565803289,           0.
     10,          0.5, -0.658179283,           0.
     11,  0.583333313, -0.702442825,           0.
     12,  0.666666687, -0.654330313,           0.
     13,         0.75, -0.606217802,           0.
     14,  0.833333313,  -0.55810529,           0.
     15,  0.916666687, -0.509992719,           0.
     16,           1., -0.369504184,           0.
     17,           1.,  -0.27712813,           0.
     18,           1., -0.184752092,           0.
     19,           1., -0.0923760459,           0.
     20,  0.916666687, -0.0481125228,           0.
** ... 195 like lines cut
*Element, type=S8R5
 1,   1,   7,  39,  24,  79,  80,  81,  82
 2,   7,   8,  40,  39,  83,  84,  85,  80
 3,   8,   9,  41,  40,  86,  87,  88,  84
 4,   9,  10,  42,  41,  89,  90,  91,  87
 5,  10,   2,  11,  42,  92,  93,  94,  90
 6,  24,  39,  43,  23,  81,  95,  96,  97
 7,  39,  40,  44,  43,  85,  98,  99,  95
 8,  40,  41,  45,  44,  88, 100, 101,  98
 9,  41,  42,  46,  45,  91, 102, 103, 100
10,  42,  11,  12,  46,  94, 104, 105, 102
11,  23,  43,  47,  22,  96, 106, 107, 108
12,  43,  44,  48,  47,  99, 109, 110, 106
13,  44,  45,  49,  48, 101, 111, 112, 109
14,  45,  46,  50,  49, 103, 113, 114, 111
15,  46,  12,  13,  50, 105, 115, 116, 113
16,  22,  47,  51,  21, 107, 117, 118, 119
17,  47,  48,  52,  51, 110, 120, 121, 117
18,  48,  49,  53,  52, 112, 122, 123, 120
19,  49,  50,  54,  53, 114, 124, 125, 122
20,  50,  13,  14,  54, 116, 126, 127, 124
** ... 40 like lines cut
*Nset, nset=_PickedSet18, internal, generate
   1,  215,    1
*Elset, elset=_PickedSet18, internal, generate
  1,  60,   1
*Nset, nset=Set-2, generate
   1,  215,    1
*Elset, elset=Set-2, generate
  1,  60,   1
*Orientation, name=Ori-1
0.866025403784438,          0.5,           0.,         -0.5, 0.866025403784438,           0.
3, 0.
** Section: PlateSection
*Shell General Section, elset=Set-2, material=Metal, orientation=Ori-1
0.008, 
*End Part
**  
**
** ASSEMBLY
**
*Assembly, name=Assembly
**  
*Instance, name=Plate-1, part=Plate
*End Instance
**  
*Nset, nset=MidSpan, instance=Plate-1
  1,  2,  7,  8,  9, 10, 79, 83, 86, 89, 92
*Elset, elset=MidSpan, instance=Plate-1
  1,  2,  3,  4,  5, 31, 32, 33, 34, 35
*Nset, nset=EndA, instance=Plate-1
   5,   6,  30,  31,  32,  33, 206, 209, 211, 213, 215
*Elset, elset=EndA, instance=Plate-1, generate
 56,  60,   1
*Nset, nset=EndB, instance=Plate-1
   3,   4,  16,  17,  18,  19, 140, 143, 145, 147, 149
*Elset, elset=EndB, instance=Plate-1, generate
 26,  30,   1
*Nset, nset=Set-4, instance=Plate-1
   3,   4,  16,  17,  18,  19, 140, 143, 145, 147, 149
*Elset, elset=Set-4, instance=Plate-1, generate
 26,  30,   1
*Nset, nset=Set-5, instance=Plate-1
   5,   6,  30,  31,  32,  33, 206, 209, 211, 213, 215
*Elset, elset=Set-5, instance=Plate-1, generate
 56,  60,   1
*Elset, elset=_Surf-1_SPOS, internal, instance=Plate-1, generate
  1,  60,   1
*Surface, type=ELEMENT, name=Surf-1
_Surf-1_SPOS, SPOS
*Nset, nset="_T-Plate-1-Datum csys-1", internal
Set-4, 
*Transform, nset="_T-Plate-1-Datum csys-1"
0.866025403784438,          0.5,           0.,         -0.5, 0.866025403784438,           0.
*End Assembly
** 
** MATERIALS
** 
*Material, name=Metal
*Elastic
 3e+10, 0.3
** ----------------------------------------------------------------
** 
** STEP: Apply pressure
** 
*Step, name="Apply pressure"
Uniform pressure (20 kPa) load
*Static
1., 1., 1e-05, 1.
** 
** BOUNDARY CONDITIONS
** 
** Name: Fix left end Type: Displacement/Rotation
*Boundary
Set-5, 1, 1
Set-5, 2, 2
Set-5, 3, 3
Set-5, 4, 4
Set-5, 5, 5
Set-5, 6, 6
** Name: Rail boundary condition Type: Displacement/Rotation
*Boundary
Set-4, 2, 2
Set-4, 3, 3
Set-4, 4, 4
Set-4, 5, 5
Set-4, 6, 6
** 
** LOADS
** 
** Name: Load-1   Type: Pressure
*Dsload
Surf-1, P, 20000.
** 
** OUTPUT REQUESTS
** 
*Restart, write, frequency=0
** 
** FIELD OUTPUT: F-Output-1
** 
*Output, field, variable=PRESELECT
** 
** HISTORY OUTPUT: H-Output-1
** 
*Output, history, variable=PRESELECT
*End Step
