*Heading
 Linear Elastic Steel Connecting Lug
** Job name: Lug Model name: Model-1
** Generated by: Abaqus/CAE 6.12-1
*Preprint, echo=NO, model=NO, history=NO, contact=NO
**
** PARTS
**
*Part, name=Lug
*Node
      1,  0.075000003, 0.0500000007,           0.
      2,  0.075000003, 0.0250000004,           0.
      3,           0., 0.0250000004,           0.
      4,           0., 0.0500000007,           0.
      5,  0.075000003, 0.0250000004, 0.0199999996
      6,           0., 0.0250000004, 0.0199999996
      7,           0., 0.0500000007, 0.0199999996
      8,  0.075000003, 0.0500000007, 0.0199999996
      9,  0.075000003,           0., 0.0199999996
     10,           0.,           0., 0.0199999996
     11,           0.,           0.,           0.
     12,  0.075000003,           0.,           0.
     13,  0.100000001,           0.,           0.
     14,  0.100000001, 0.00999999978,           0.
     15,  0.100000001, 0.00999999978, 0.0199999996
     16,  0.100000001,           0., 0.0199999996
     17, 0.0850000009, 0.0250000004,           0.
     18,  0.085609518, 0.0207675043,           0.
     19, 0.0850000009, 0.0250000004, 0.0199999996
     20,  0.085609518, 0.0207675043, 0.0199999996
** ... 2426 like lines cut
*Element, type=C3D4
   1, 2179, 2180, 2181, 2182
   2, 2183, 2184, 2185, 2186
   3, 2183, 2187, 2188, 2185
   4, 2187, 2185, 2071, 2188
   5, 2187, 2189, 2190, 2191
   6, 2187, 2126, 2189, 2191
   7, 2187, 2192, 2189, 2126
   8, 2183, 2193, 2194, 2195
   9, 2183, 2196, 2197, 2186
  10, 2187, 2185, 2192, 2071
  11, 2183, 2196, 2185, 2188
  12, 2187, 2185, 2189, 2192
  13, 2185, 2072, 2198, 2070
  14, 2185, 2069, 2070, 2184
  15, 2199, 2200, 2201, 2202
  16, 2202, 2199, 2108, 2203
  17, 2199, 2106, 2201, 2200
  18, 2199, 2106, 2204, 2201
  19, 2199, 2205, 2206, 2201
  20, 2199, 2204, 2105, 2205
** ... 2904 like lines cut
*Nset, nset=Set-1, generate
 1717,  2446,     1
*Elset, elset=Set-1, generate
    1,  2924,     1
** Section: LugSection
*Solid Section, elset=Set-1, material=Steel
,
*End Part
**  
**
** ASSEMBLY
**
*Assembly, name=Assembly
**  
*Instance, name=Lug-1, part=Lug
*End Instance
**  
*Nset, nset=_PickedSet10, internal, instance=Lug-1
 1717, 1718, 1719, 1720, 1851, 1852, 1854, 1855, 1858, 1859, 1890, 1891, 1892, 1905, 1906, 1917
 1918, 1919, 1920, 1921, 1940, 1941, 1942, 1953, 1954, 1955, 1956, 1957, 2085, 2086, 2087, 2088
 2089, 2090, 2177, 2178
*Elset, elset=_PickedSet10, internal, instance=Lug-1
   49,  226,  284,  307,  381,  518,  652,  721,  794,  795,  877,  897,  902,  904,  906,  907
  910,  916,  918,  976,  997, 1000, 1013, 1036, 1144, 1422, 1450, 1511, 1553, 1568, 1722, 1730
 1732, 1756, 1839, 1855, 1926, 1927, 1928, 1930, 1931, 1940, 1951, 2053, 2055, 2057, 2065, 2067
*Elset, elset=__PickedSurf11_S3, internal, instance=Lug-1
 2160, 2175, 2219, 2303, 2307, 2308, 2313, 2315, 2318, 2319, 2325, 2327, 2328, 2330, 2333, 2334
 2338, 2341, 2367, 2383, 2390, 2407, 2796, 2850, 2860, 2868, 2869, 2871, 2873, 2874, 2877, 2878
 2881, 2882, 2884, 2886, 2896, 2911, 2917
*Elset, elset=__PickedSurf11_S1, internal, instance=Lug-1
 2171, 2255
*Elset, elset=__PickedSurf11_S2, internal, instance=Lug-1
 2819,
*Surface, type=ELEMENT, name=_PickedSurf11, internal
__PickedSurf11_S3, S3
__PickedSurf11_S1, S1
__PickedSurf11_S2, S2
*End Assembly
** 
** MATERIALS
** 
*Material, name=Steel
*Elastic
 2e+11, 0.3
** ----------------------------------------------------------------
** 
** STEP: LugLoad
** 
*Step, name=LugLoad
Apply uniform pressure to the hole
*Static
1., 1., 1e-05, 1.
** 
** BOUNDARY CONDITIONS
** 
** Name: Fix left end Type: Symmetry/Antisymmetry/Encastre
*Boundary
_PickedSet10, ENCASTRE
** 
** LOADS
** 
** Name: Pressure Load   Type: Pressure
*Dsload
_PickedSurf11, P, 5e+07
** 
** OUTPUT REQUESTS
** 
*Restart, write, frequency=0
** 
** FIELD OUTPUT: F-Output-1
** 
*Output, field
*Node Output
CF, U
*Element Output, directions=YES
NFORC, S
** 
** HISTORY OUTPUT: H-Output-1
** 
*Output, history, variable=PRESELECT
*End Step
