*Heading
 Linear Elastic Steel Connecting Lug
** Job name: Lug Model name: Model-1
** Generated by: Abaqus/CAE 6.12-1
*Preprint, echo=NO, model=NO, history=NO, contact=NO
**
** PARTS
**
*Part, name=Lug
*Node
      1,  0.075000003, 0.0500000007,           0.
      2,  0.075000003, 0.0250000004,           0.
      3,           0., 0.0250000004,           0.
      4,           0., 0.0500000007,           0.
      5,  0.075000003, 0.0250000004, 0.0199999996
      6,           0., 0.0250000004, 0.0199999996
      7,           0., 0.0500000007, 0.0199999996
      8,  0.075000003, 0.0500000007, 0.0199999996
      9,  0.075000003,           0., 0.0199999996
     10,           0.,           0., 0.0199999996
     11,           0.,           0.,           0.
     12,  0.075000003,           0.,           0.
     13,  0.100000001,           0.,           0.
     14,  0.100000001, 0.00999999978,           0.
     15,  0.100000001, 0.00999999978, 0.0199999996
     16,  0.100000001,           0., 0.0199999996
     17, 0.0850000009, 0.0250000004,           0.
     18,  0.085609518, 0.0207675043,           0.
     19, 0.0850000009, 0.0250000004, 0.0199999996
     20,  0.085609518, 0.0207675043, 0.0199999996
** ... 2005 like lines cut
*Element, type=C3D20R
  1,   80,  267,  447,  227,    1,   29,  187,   52,  576,  575,  574,  573,  577,  578,  579,
      580,  582,  581,  583,  584
  2,  267,  268,  448,  447,   29,   30,  188,  187,  587,  586,  585,  575,  588,  589,  590,
      578,  581,  591,  592,  583
  3,  268,   84,  247,  448,   30,    2,   31,  188,  595,  594,  593,  586,  596,  597,  598,
      589,  591,  599,  600,  592
  4,  227,  447,  449,  228,   52,  187,  189,   51,  574,  603,  602,  601,  579,  604,  605,
      606,  584,  583,  607,  608
  5,  447,  448,  450,  449,  187,  188,  190,  189,  585,  610,  609,  603,  590,  611,  612,
      604,  583,  592,  613,  607
  6,  448,  247,  248,  450,  188,   31,   32,  190,  593,  615,  614,  610,  598,  616,  617,
      611,  592,  600,  618,  613
  7,  228,  449,  451,  229,   51,  189,  191,   50,  602,  621,  620,  619,  605,  622,  623,
      624,  608,  607,  625,  626
  8,  449,  450,  452,  451,  189,  190,  192,  191,  609,  628,  627,  621,  612,  629,  630,
      622,  607,  613,  631,  625
  9,  450,  248,  249,  452,  190,   32,   33,  192,  614,  633,  632,  628,  617,  634,  635,
      629,  613,  618,  636,  631
 10,  229,  451,  453,  230,   50,  191,  193,   49,  620,  639,  638,  637,  623,  640,  641,
      642,  626,  625,  643,  644
** ... 658 like lines cut
*Nset, nset=Set-1, generate
    1,  2025,     1
*Elset, elset=Set-1, generate
   1,  339,    1
** Section: LugSection
*Solid Section, elset=Set-1, material=Steel
,
*End Part
**  
**
** ASSEMBLY
**
*Assembly, name=Assembly
**  
*Instance, name=Lug-1, part=Lug
*End Instance
**  
*Nset, nset=_PickedSet4, internal, instance=Lug-1
    3,    4,    6,    7,   10,   11,   41,   42,   65,   66,   77,   78,   81,   82,   88,   89
   90,  104,  105,  106,  117,  118,  271,  272,  273,  274,  361,  362,  363,  364,  365,  366
  764,  767,  769,  770,  771,  774,  775,  776,  779,  780,  899,  901,  902,  903,  905,  906
  908, 1027, 1029, 1030, 1031, 1033, 1034, 1036, 1250, 1253, 1255, 1256, 1257, 1260, 1261, 1262
 1265, 1266, 1267, 1268, 1398, 1400, 1401, 1402, 1404, 1405, 1407, 1408, 1538, 1540, 1541, 1542
 1544, 1545, 1547, 1548
*Elset, elset=_PickedSet4, internal, instance=Lug-1
  31,  32,  33,  64,  65,  66,  97,  98,  99, 140, 141, 142, 143, 184, 185, 186
 187, 228, 229, 230, 231
*Elset, elset=__PickedSurf5_S4, internal, instance=Lug-1
 234, 235, 248, 249, 250, 259, 260, 261, 262, 263, 264
*Elset, elset=__PickedSurf5_S3, internal, instance=Lug-1, generate
 236,  239,    1
*Elset, elset=__PickedSurf5_S1, internal, instance=Lug-1, generate
 328,  339,    1
*Surface, type=ELEMENT, name=_PickedSurf5, internal
__PickedSurf5_S4, S4
__PickedSurf5_S3, S3
__PickedSurf5_S1, S1
*End Assembly
** 
** MATERIALS
** 
*Material, name=Steel
*Elastic
 2e+11, 0.3
** ----------------------------------------------------------------
** 
** STEP: LugLoad
** 
*Step, name=LugLoad
Apply uniform pressure to the hole
*Static
1., 1., 1e-05, 1.
** 
** BOUNDARY CONDITIONS
** 
** Name: Fix left end Type: Symmetry/Antisymmetry/Encastre
*Boundary
_PickedSet4, ENCASTRE
** 
** LOADS
** 
** Name: Pressure Load   Type: Pressure
*Dsload
_PickedSurf5, P, 5e+07
** 
** OUTPUT REQUESTS
** 
*Restart, write, frequency=0
** 
** FIELD OUTPUT: F-Output-1
** 
*Output, field
*Node Output
CF, U
*Element Output, directions=YES
NFORC, S
** 
** HISTORY OUTPUT: H-Output-1
** 
*Output, history, variable=PRESELECT
*End Step
